This is my first text file. 
New line.
New second line.